ZINC000033253252
 OpenBabel05041910573D

 64 66  0  0  0  0  0  0  0  0999 V2000
   -1.2621    1.5871   -0.8534 C   0  0  0  0  0  0  0  0  0  0  0  0
   -1.3410    0.0610   -0.9279 C   0  0  0  0  0  0  0  0  0  0  0  0
   -0.4566   -0.4339   -2.0433 C   0  0  0  0  0  0  0  0  0  0  0  0
   -0.9667   -0.5708   -3.3208 C   0  0  0  0  0  0  0  0  0  0  0  0
   -0.1556   -1.0248   -4.3439 C   0  0  0  0  0  0  0  0  0  0  0  0
    1.1658   -1.3414   -4.0897 C   0  0  0  0  0  0  0  0  0  0  0  0
    2.1996   -1.9206   -5.3937 S   0  0  0  0  0  0  0  0  0  0  0  0
    3.2465   -2.6584   -4.7782 O   0  0  0  0  0  0  0  0  0  0  0  0
    1.3344   -2.4717   -6.3771 O   0  0  0  0  0  0  0  0  0  0  0  0
    2.9072   -0.5925   -6.0849 N   0  0  0  0  0  0  0  0  0  0  0  0
    3.7908   -0.7497   -7.1600 C   0  0  0  0  0  0  0  0  0  0  0  0
    4.0678   -2.0114   -7.6476 C   0  0  0  0  0  0  0  0  0  0  0  0
    4.9519   -2.1641   -8.7227 C   0  0  0  0  0  0  0  0  0  0  0  0
    5.2503   -3.5063   -9.2466 C   0  0  0  0  0  0  0  0  0  0  0  0
    4.7258   -4.4903   -8.7428 O   0  0  0  0  0  0  0  0  0  0  0  0
    6.0230   -3.6385  -10.1860 O   0  0  0  0  0  0  0  0  0  0  0  0
    5.5505   -1.0383   -9.2979 C   0  0  0  0  0  0  0  0  0  0  0  0
    5.2709    0.2176   -8.8073 C   0  0  0  0  0  0  0  0  0  0  0  0
    4.3887    0.3717   -7.7441 C   0  0  0  0  0  0  0  0  0  0  0  0
    4.1094    1.6434   -7.2518 N   0  0  0  0  0  0  0  0  0  0  0  0
    4.6533    2.6821   -8.1377 C   0  0  0  0  0  0  0  0  0  0  0  0
    4.2576    4.0614   -7.6052 C   0  0  0  0  0  0  0  0  0  0  0  0
    4.7685    4.2202   -6.2364 N   0  0  0  0  0  0  0  0  0  0  0  0
    4.4737    5.5623   -5.7169 C   0  0  0  0  0  0  0  0  0  0  0  0
    5.2165    5.7743   -4.4229 C   0  0  0  0  0  0  0  0  0  0  0  0
    5.9219    4.8941   -3.9773 O   0  0  0  0  0  0  0  0  0  0  0  0
    5.0969    6.9421   -3.7608 N   0  0  0  0  0  0  0  0  0  0  0  0
    5.8189    7.1483   -2.5029 C   0  0  0  0  0  0  0  0  0  0  0  0
    6.0393    8.6459   -2.2809 C   0  0  0  0  0  0  0  0  0  0  0  0
    4.9991    6.5762   -1.3446 C   0  0  0  0  0  0  0  0  0  0  0  0
    4.2246    3.1814   -5.3506 C   0  0  0  0  0  0  0  0  0  0  0  0
    4.6203    1.8022   -5.8831 C   0  0  0  0  0  0  0  0  0  0  0  0
    1.6762   -1.2032   -2.8125 C   0  0  0  0  0  0  0  0  0  0  0  0
    0.8661   -0.7456   -1.7902 C   0  0  0  0  0  0  0  0  0  0  0  0
   -0.2323    1.8888   -0.6618 H   0  0  0  0  0  0  0  0  0  0  0  0
   -1.5960    2.0148   -1.7988 H   0  0  0  0  0  0  0  0  0  0  0  0
   -1.9017    1.9451   -0.0467 H   0  0  0  0  0  0  0  0  0  0  0  0
   -1.0070   -0.3667    0.0175 H   0  0  0  0  0  0  0  0  0  0  0  0
   -2.3707   -0.2407   -1.1196 H   0  0  0  0  0  0  0  0  0  0  0  0
   -1.9991   -0.3234   -3.5194 H   0  0  0  0  0  0  0  0  0  0  0  0
   -0.5543   -1.1324   -5.3419 H   0  0  0  0  0  0  0  0  0  0  0  0
    3.6040   -2.8784   -7.2007 H   0  0  0  0  0  0  0  0  0  0  0  0
    6.2326   -1.1542  -10.1272 H   0  0  0  0  0  0  0  0  0  0  0  0
    5.7347    1.0854   -9.2524 H   0  0  0  0  0  0  0  0  0  0  0  0
    5.7399    2.6020   -8.1678 H   0  0  0  0  0  0  0  0  0  0  0  0
    4.2507    2.5509   -9.1421 H   0  0  0  0  0  0  0  0  0  0  0  0
    4.6843    4.8342   -8.2445 H   0  0  0  0  0  0  0  0  0  0  0  0
    3.1714    4.1515   -7.6007 H   0  0  0  0  0  0  0  0  0  0  0  0
    4.7893    6.3107   -6.4439 H   0  0  0  0  0  0  0  0  0  0  0  0
    3.4022    5.6564   -5.5404 H   0  0  0  0  0  0  0  0  0  0  0  0
    4.5327    7.6461   -4.1172 H   0  0  0  0  0  0  0  0  0  0  0  0
    6.7831    6.6422   -2.5503 H   0  0  0  0  0  0  0  0  0  0  0  0
    5.0751    9.1520   -2.2335 H   0  0  0  0  0  0  0  0  0  0  0  0
    6.5766    8.7993   -1.3450 H   0  0  0  0  0  0  0  0  0  0  0  0
    6.6234    9.0535   -3.1061 H   0  0  0  0  0  0  0  0  0  0  0  0
    4.0348    7.0823   -1.2972 H   0  0  0  0  0  0  0  0  0  0  0  0
    4.8420    5.5093   -1.5028 H   0  0  0  0  0  0  0  0  0  0  0  0
    5.5363    6.7296   -0.4087 H   0  0  0  0  0  0  0  0  0  0  0  0
    4.6272    3.3127   -4.3462 H   0  0  0  0  0  0  0  0  0  0  0  0
    3.1379    3.2616   -5.3204 H   0  0  0  0  0  0  0  0  0  0  0  0
    4.1935    1.0294   -5.2437 H   0  0  0  0  0  0  0  0  0  0  0  0
    5.7065    1.7120   -5.8876 H   0  0  0  0  0  0  0  0  0  0  0  0
    2.7087   -1.4502   -2.6139 H   0  0  0  0  0  0  0  0  0  0  0  0
    1.2649   -0.6376   -0.7923 H   0  0  0  0  0  0  0  0  0  0  0  0
  1  2  1  0  0  0  0
  1 35  1  0  0  0  0
  1 36  1  0  0  0  0
  1 37  1  0  0  0  0
  2  3  1  0  0  0  0
  2 38  1  0  0  0  0
  2 39  1  0  0  0  0
  3 34  2  0  0  0  0
  3  4  1  0  0  0  0
  4  5  2  0  0  0  0
  4 40  1  0  0  0  0
  5  6  1  0  0  0  0
  5 41  1  0  0  0  0
  6  7  1  0  0  0  0
  6 33  2  0  0  0  0
  7  8  2  0  0  0  0
  7  9  2  0  0  0  0
  7 10  1  0  0  0  0
 10 11  1  0  0  0  0
 11 19  2  0  0  0  0
 11 12  1  0  0  0  0
 12 13  2  0  0  0  0
 12 42  1  0  0  0  0
 13 14  1  0  0  0  0
 13 17  1  0  0  0  0
 14 15  2  0  0  0  0
 14 16  1  0  0  0  0
 17 18  2  0  0  0  0
 17 43  1  0  0  0  0
 18 19  1  0  0  0  0
 18 44  1  0  0  0  0
 19 20  1  0  0  0  0
 20 32  1  0  0  0  0
 20 21  1  0  0  0  0
 21 22  1  0  0  0  0
 21 45  1  0  0  0  0
 21 46  1  0  0  0  0
 22 23  1  0  0  0  0
 22 47  1  0  0  0  0
 22 48  1  0  0  0  0
 23 24  1  0  0  0  0
 23 31  1  0  0  0  0
 24 25  1  0  0  0  0
 24 49  1  0  0  0  0
 24 50  1  0  0  0  0
 25 26  2  0  0  0  0
 25 27  1  0  0  0  0
 27 28  1  0  0  0  0
 27 51  1  0  0  0  0
 28 29  1  0  0  0  0
 28 30  1  0  0  0  0
 28 52  1  0  0  0  0
 29 53  1  0  0  0  0
 29 54  1  0  0  0  0
 29 55  1  0  0  0  0
 30 56  1  0  0  0  0
 30 57  1  0  0  0  0
 30 58  1  0  0  0  0
 31 32  1  0  0  0  0
 31 59  1  0  0  0  0
 31 60  1  0  0  0  0
 32 61  1  0  0  0  0
 32 62  1  0  0  0  0
 33 34  1  0  0  0  0
 33 63  1  0  0  0  0
 34 64  1  0  0  0  0
M  END
$$$$